# CIF file generated by openbabel 3.1.0, see https://openbabel.org
data_I
_chemical_name_common ''
_cell_length_a 13.105
_cell_length_b 13.105
_cell_length_c 23.0123
_cell_angle_alpha 90
_cell_angle_beta 90
_cell_angle_gamma 120
loop_
    _atom_site_label
    _atom_site_type_symbol
    _atom_site_fract_x
    _atom_site_fract_y
    _atom_site_fract_z
    _atom_site_occupancy
    Mo0      Mo       0.16667    0.08334    0.06545    1.000
    S1       S        0.08333    0.16667    0.99649    1.000
    S2       S        0.08333    0.16667    0.13441    1.000
    Mo3      Mo       0.41668    0.08335    0.06545    1.000
    S4       S        0.33334    0.16667    0.99649    1.000
    S5       S        0.33334    0.16667    0.13441    1.000
    Mo6      Mo       0.66667    0.08335    0.06545    1.000
    S7       S        0.58334    0.16667    0.99649    1.000
    S8       S        0.58334    0.16668    0.13441    1.000
    Mo9      Mo       0.91667    0.08334    0.06545    1.000
    S10      S        0.83333    0.16667    0.99649    1.000
    S11      S        0.83333    0.16667    0.13441    1.000
    Mo12     Mo       0.16667    0.33333    0.06545    1.000
    S13      S        0.08333    0.41667    0.99649    1.000
    S14      S        0.08333    0.41667    0.13441    1.000
    Mo15     Mo       0.41668    0.33334    0.06545    1.000
    S16      S        0.33334    0.41667    0.99649    1.000
    S17      S        0.33334    0.41667    0.13441    1.000
    Mo18     Mo       0.66667    0.33334    0.06545    1.000
    S19      S        0.58334    0.41667    0.99649    1.000
    S20      S        0.58334    0.41667    0.13441    1.000
    Mo21     Mo       0.91666    0.33333    0.06545    1.000
    S22      S        0.83333    0.41667    0.99649    1.000
    S23      S        0.83333    0.41667    0.13441    1.000
    Mo24     Mo       0.16666    0.58333    0.06545    1.000
    S25      S        0.08333    0.66667    0.99649    1.000
    S26      S        0.08333    0.66667    0.13441    1.000
    Mo27     Mo       0.41667    0.58333    0.06545    1.000
    S28      S        0.33334    0.66667    0.99649    1.000
    S29      S        0.33334    0.66667    0.13441    1.000
    Mo30     Mo       0.66667    0.58333    0.06545    1.000
    S31      S        0.58334    0.66667    0.99649    1.000
    S32      S        0.58334    0.66667    0.13441    1.000
    Mo33     Mo       0.91666    0.58333    0.06545    1.000
    S34      S        0.83333    0.66667    0.99649    1.000
    S35      S        0.83333    0.66667    0.13441    1.000
    Mo36     Mo       0.16667    0.83334    0.06545    1.000
    S37      S        0.08333    0.91667    0.99649    1.000
    S38      S        0.08333    0.91667    0.13441    1.000
    Mo39     Mo       0.41667    0.83335    0.06545    1.000
    S40      S        0.33334    0.91668    0.99649    1.000
    S41      S        0.33334    0.91668    0.13441    1.000
    Mo42     Mo       0.66667    0.83334    0.06545    1.000
    S43      S        0.58334    0.91668    0.99649    1.000
    S44      S        0.58334    0.91668    0.13441    1.000
    Mo45     Mo       0.91667    0.83333    0.06545    1.000
    S46      S        0.83333    0.91667    0.99649    1.000
    S47      S        0.83334    0.91667    0.13441    1.000
