# CIF file generated by openbabel 3.1.0, see https://openbabel.org
data_I
_chemical_name_common ''
_cell_length_a 13.105
_cell_length_b 13.105
_cell_length_c 23.0122
_cell_angle_alpha 90
_cell_angle_beta 90
_cell_angle_gamma 120
loop_
    _atom_site_label
    _atom_site_type_symbol
    _atom_site_fract_x
    _atom_site_fract_y
    _atom_site_fract_z
    _atom_site_occupancy
    Mo0      Mo       0.16663    0.08350    0.06923    1.000
    S1       S        0.08326    0.16672    0.00022    1.000
    S2       S        0.08327    0.16681    0.13817    1.000
    Mo3      Mo       0.41663    0.08351    0.06923    1.000
    S4       S        0.33327    0.16679    0.00024    1.000
    S5       S        0.33334    0.16693    0.13819    1.000
    Mo6      Mo       0.66655    0.08343    0.06919    1.000
    S7       S        0.58322    0.16674    0.00022    1.000
    S8       S        0.58331    0.16683    0.13817    1.000
    Mo9      Mo       0.91663    0.08342    0.06919    1.000
    S10      S        0.83327    0.16679    0.00026    1.000
    S11      S        0.83327    0.16679    0.13810    1.000
    Mo12     Mo       0.16644    0.33337    0.06915    1.000
    S13      S        0.08325    0.41684    0.00022    1.000
    S14      S        0.08326    0.41676    0.13817    1.000
    Mo15     Mo       0.41658    0.33343    0.06917    1.000
    S16      S        0.33315    0.41673    0.00023    1.000
    S17      S        0.33305    0.41668    0.13803    1.000
    Mo18     Mo       0.66667    0.33338    0.06914    1.000
    S19      S        0.58331    0.41674    0.00023    1.000
    S20      S        0.58336    0.41669    0.13802    1.000
    Mo21     Mo       0.91662    0.33352    0.06919    1.000
    S22      S        0.83332    0.41684    0.00022    1.000
    S23      S        0.83323    0.41676    0.13817    1.000
    Mo24     Mo       0.16663    0.58344    0.06923    1.000
    S25      S        0.08331    0.66685    0.00032    1.000
    S26      S        0.08323    0.66669    0.13821    1.000
    Mo27     Mo       0.41658    0.58346    0.06917    1.000
    S28      S        0.33327    0.66679    0.00024    1.000
    S29      S        0.33334    0.66672    0.13819    1.000
    Mo30     Mo       0.66663    0.58348    0.06917    1.000
    S31      S        0.58332    0.66690    0.00024    1.000
    S32      S        0.58336    0.66698    0.13804    1.000
    Mo33     Mo       0.91656    0.58344    0.06923    1.000
    S34      S        0.83328    0.66679    0.00024    1.000
    S35      S        0.83314    0.66672    0.13819    1.000
    Mo36     Mo       0.16661    0.83345    0.06931    1.000
    S37      S        0.08331    0.91676    0.00032    1.000
    S38      S        0.08323    0.91683    0.13821    1.000
    Mo39     Mo       0.41663    0.83343    0.06923    1.000
    S40      S        0.33322    0.91676    0.00033    1.000
    S41      S        0.33337    0.91684    0.13821    1.000
    Mo42     Mo       0.66668    0.83360    0.06916    1.000
    S43      S        0.58323    0.91679    0.00022    1.000
    S44      S        0.58330    0.91680    0.13817    1.000
    Mo45     Mo       0.91657    0.83342    0.06923    1.000
    S46      S        0.83332    0.91678    0.00022    1.000
    S47      S        0.83324    0.91678    0.13817    1.000
    H48      H        0.40873    0.45565    0.27200    1.000
    C49      C        0.49961    0.50037    0.28741    1.000
    H50      H        0.54477    0.59119    0.27192    1.000
    H51      H        0.54427    0.45515    0.27064    1.000
    H52      H        0.50063    0.49951    0.33475    1.000
