# CIF file generated by openbabel 3.1.0, see https://openbabel.org
data_I
_chemical_name_common ''
_cell_length_a 19.6668
_cell_length_b 19.6668
_cell_length_c 23.0123
_cell_angle_alpha 90
_cell_angle_beta 90
_cell_angle_gamma 120
loop_
    _atom_site_label
    _atom_site_type_symbol
    _atom_site_fract_x
    _atom_site_fract_y
    _atom_site_fract_z
    _atom_site_occupancy
    Mo0      Mo       0.11117    0.05485    0.06815    1.000
    S1       S        0.05547    0.11028    0.99926    1.000
    S2       S        0.05579    0.11054    0.13714    1.000
    Mo3      Mo       0.27783    0.05485    0.06795    1.000
    S4       S        0.22204    0.11015    0.99901    1.000
    S5       S        0.22258    0.11072    0.13694    1.000
    Mo6      Mo       0.44443    0.05483    0.06779    1.000
    S7       S        0.38865    0.10999    0.99870    1.000
    S8       S        0.38919    0.11083    0.13670    1.000
    Mo9      Mo       0.61111    0.05478    0.06798    1.000
    S10      S        0.55552    0.11008    0.99879    1.000
    S11      S        0.55556    0.11064    0.13670    1.000
    Mo12     Mo       0.77780    0.05480    0.06824    1.000
    S13      S        0.72233    0.11026    0.99915    1.000
    S14      S        0.72212    0.11043    0.13701    1.000
    Mo15     Mo       0.94450    0.05484    0.06832    1.000
    S16      S        0.88893    0.11033    0.99935    1.000
    S17      S        0.88894    0.11045    0.13721    1.000
    Mo18     Mo       0.11120    0.22152    0.06805    1.000
    S19      S        0.05553    0.27702    0.99918    1.000
    S20      S        0.05575    0.27711    0.13706    1.000
    Mo21     Mo       0.27789    0.22153    0.06765    1.000
    S22      S        0.22203    0.27690    0.99884    1.000
    S23      S        0.22264    0.27721    0.13685    1.000
    Mo24     Mo       0.44447    0.22146    0.06723    1.000
    S25      S        0.38870    0.27685    0.99830    1.000
    S26      S        0.38919    0.27710    0.13619    1.000
    Mo27     Mo       0.61114    0.22148    0.06741    1.000
    S28      S        0.55564    0.27689    0.99818    1.000
    S29      S        0.55560    0.27717    0.13593    1.000
    Mo30     Mo       0.77782    0.22147    0.06799    1.000
    S31      S        0.72256    0.27708    0.99881    1.000
    S32      S        0.72196    0.27701    0.13671    1.000
    Mo33     Mo       0.94451    0.22150    0.06819    1.000
    S34      S        0.88904    0.27704    0.99916    1.000
    S35      S        0.88884    0.27704    0.13704    1.000
    Mo36     Mo       0.11118    0.38815    0.06809    1.000
    S37      S        0.05563    0.44378    0.99922    1.000
    S38      S        0.05560    0.44362    0.13710    1.000
    Mo39     Mo       0.27788    0.38812    0.06762    1.000
    S40      S        0.22214    0.44377    0.99898    1.000
    S41      S        0.22250    0.44358    0.13692    1.000
    Mo42     Mo       0.44447    0.38806    0.06716    1.000
    S43      S        0.38878    0.44373    0.99837    1.000
    S44      S        0.38905    0.44352    0.13615    1.000
    Mo45     Mo       0.61121    0.38814    0.06703    1.000
    S46      S        0.55568    0.44387    0.99822    1.000
    S47      S        0.55559    0.44336    0.13600    1.000
    Mo48     Mo       0.77785    0.38815    0.06783    1.000
    S49      S        0.72277    0.44400    0.99867    1.000
    S50      S        0.72179    0.44343    0.13665    1.000
    Mo51     Mo       0.94450    0.38815    0.06812    1.000
    S52      S        0.88916    0.44384    0.99912    1.000
    S53      S        0.88873    0.44358    0.13699    1.000
    Mo54     Mo       0.11115    0.55480    0.06825    1.000
    S55      S        0.05566    0.61045    0.99936    1.000
    S56      S        0.05555    0.61030    0.13723    1.000
    Mo57     Mo       0.27782    0.55476    0.06803    1.000
    S58      S        0.22218    0.61040    0.99926    1.000
    S59      S        0.22235    0.61028    0.13712    1.000
    Mo60     Mo       0.44445    0.55467    0.06757    1.000
    S61      S        0.38880    0.61044    0.99896    1.000
    S62      S        0.38903    0.61008    0.13689    1.000
    Mo63     Mo       0.61111    0.55472    0.06756    1.000
    S64      S        0.55568    0.61054    0.99877    1.000
    S65      S        0.55540    0.60995    0.13675    1.000
    Mo66     Mo       0.77785    0.55484    0.06792    1.000
    S67      S        0.72253    0.61060    0.99895    1.000
    S68      S        0.72192    0.61006    0.13686    1.000
    Mo69     Mo       0.94449    0.55483    0.06821    1.000
    S70      S        0.88915    0.61054    0.99920    1.000
    S71      S        0.88875    0.61028    0.13708    1.000
    Mo72     Mo       0.11115    0.72149    0.06833    1.000
    S73      S        0.05563    0.77705    0.99935    1.000
    S74      S        0.05558    0.77709    0.13722    1.000
    Mo75     Mo       0.27780    0.72145    0.06823    1.000
    S76      S        0.22216    0.77697    0.99934    1.000
    S77      S        0.22234    0.77711    0.13721    1.000
    Mo78     Mo       0.44445    0.72141    0.06806    1.000
    S79      S        0.38881    0.77697    0.99921    1.000
    S80      S        0.38899    0.77701    0.13708    1.000
    Mo81     Mo       0.61110    0.72140    0.06797    1.000
    S82      S        0.55558    0.77708    0.99915    1.000
    S83      S        0.55551    0.77684    0.13702    1.000
    Mo84     Mo       0.77780    0.72148    0.06811    1.000
    S85      S        0.72237    0.77718    0.99920    1.000
    S86      S        0.72207    0.77682    0.13707    1.000
    Mo87     Mo       0.94449    0.72151    0.06823    1.000
    S88      S        0.88902    0.77714    0.99927    1.000
    S89      S        0.88881    0.77698    0.13714    1.000
    Mo90     Mo       0.11115    0.88818    0.06825    1.000
    S91      S        0.05553    0.94367    0.99929    1.000
    S92      S        0.05568    0.94383    0.13717    1.000
    Mo93     Mo       0.27779    0.88815    0.06818    1.000
    S94      S        0.22212    0.94356    0.99921    1.000
    S95      S        0.22239    0.94393    0.13709    1.000
    Mo96     Mo       0.44443    0.88812    0.06810    1.000
    S97      S        0.38876    0.94349    0.99908    1.000
    S98      S        0.38903    0.94393    0.13696    1.000
    Mo99     Mo       0.61109    0.88809    0.06817    1.000
    S100     S        0.55554    0.94358    0.99915    1.000
    S101     S        0.55553    0.94375    0.13703    1.000
    Mo102    Mo       0.77779    0.88813    0.06828    1.000
    S103     S        0.72228    0.94369    0.99933    1.000
    S104     S        0.72215    0.94365    0.13719    1.000
    Mo105    Mo       0.94449    0.88817    0.06827    1.000
    S106     S        0.88893    0.94374    0.99939    1.000
    S107     S        0.88891    0.94370    0.13725    1.000
    H108     H        0.41225    0.19205    0.28643    1.000
    C109     C        0.45372    0.25422    0.28575    1.000
    C110     C        0.43595    0.31694    0.28601    1.000
    C111     C        0.53417    0.28801    0.28465    1.000
    H112     H        0.57046    0.26128    0.28418    1.000
    N113     N        0.56827    0.36951    0.28404    1.000
    H114     H        0.62645    0.40806    0.28236    1.000
    C115     C        0.50927    0.38901    0.28496    1.000
    C116     C        0.36585    0.32007    0.28667    1.000
    H117     H        0.30932    0.26641    0.28734    1.000
    C118     C        0.51395    0.46248    0.28469    1.000
    H119     H        0.57007    0.51657    0.28365    1.000
    C120     C        0.37029    0.39305    0.28655    1.000
    H121     H        0.31681    0.39617    0.28708    1.000
    C122     C        0.44358    0.46355    0.28558    1.000
    H123     H        0.44505    0.51938    0.28525    1.000
